 Number of processors:            4
 Processor            1 /           4  as head node.
 Sum:           10
 Memory Manager initialised with  99999.0 MB

 ================================================================
 Compiled on May  2 2022 at 10:30:09
 Compiled using configuration:
     cmake-GNU--RELEASE
 VCS BASE repository version:
     1194326e310e17c97a6674ab22658c8f0b218439
 Working directory: 
     /home/phaupt/dev/neci/test_suite/hdf5/neci/guga/Ne_FCIMCPar_hist_tau_cont_hdf5/s0
 Running on: alamdlogin2
 Started running on 02/05/2022 at 11:38:54
 ================================================================

 Processing argumentsneci.inp                                                                                                                                                                                                                                                       
 Reading from file: neci.inp
 Using the default set of defaults.

****************************************************************

title

system read
electrons 10
nonuniformrandexcits mol_guga_weighted
guga 0
endsys

calc
methods
method vertex fcimc
endmethods
seed -7
nmcyc 1000
totalwalkers 1000
# tau 0.001 search
new-tau-search 0.9999
(WARNING: both the histogramming and standard tau-search option were chosen! TURNING STANDARD VERSION OFF!
# restart-hist-tau-search
max-tau 0.02
readpops
startsinglepart 100
truncinitiator
addtoinitiator 3
shiftdamp 0.03
stepsshift 25
jump-shift
load-balance-blocks off
maxwalkerbloom 3.0
endcalc

integral
freeze 2 0
endint

logging
popsfile -1
hdf5-pops-read
# hdf5-pops-write
no-append-stats
endlog
end

****************************************************************

 Allocating each processor as a separate node.
 I am the node root for node            0
======== SYSTEM ==========
  NUMBER OF ELECTRONS :    10
  No restriction on the S_z spin-projection of the system, TSPN :  F
  *** GENERIC SYSTEM ***  
  NUMBER OF SPIN ORBITALS IN BASIS :    46
*** CREATING BASIS FNs FROM FCIDUMP ***
  Maximum number of symmetries:   8
  Generating abelian symmetry table with  3 generators
  Number of symmetry classes: 8
 
Ordering Basis (Closed):    0   0   0   0   0   0   0   0
Ordering Basis (Open  ):    0   0   0   0   0   0   0   0
HF determinant not yet defined.
      1      1      0      0      0     -1 ( 0, 0, 0) 0   0      -32.794950868      -32.794950868
      2      2      0      0      0      1 ( 0, 0, 0) 0   0      -32.794950868      -32.794950868
      3      3      0      0      0     -1 ( 0, 0, 0) 0   0       -1.940420879       -1.940420879
      4      4      0      0      0      1 ( 0, 0, 0) 0   0       -1.940420879       -1.940420879
      5     17      0      0      0     -1 ( 0, 0, 1) 1   0       -0.853040138       -0.853040138
      6     18      0      0      0      1 ( 0, 0, 1) 1   0       -0.853040138       -0.853040138
      7     23      0      0      0     -1 ( 0, 0, 2) 2   0       -0.853040138       -0.853040138
      8     24      0      0      0      1 ( 0, 0, 2) 2   0       -0.853040138       -0.853040138
      9     33      0      0      0     -1 ( 0, 0, 4) 4   0       -0.853040138       -0.853040138
     10     34      0      0      0      1 ( 0, 0, 4) 4   0       -0.853040138       -0.853040138
     11      5      0      0      0     -1 ( 0, 0, 0) 0   0        0.287355188        0.287355188
     12      6      0      0      0      1 ( 0, 0, 0) 0   0        0.287355188        0.287355188
     13     19      0      0      0     -1 ( 0, 0, 1) 1   0        0.293011369        0.293011369
     14     20      0      0      0      1 ( 0, 0, 1) 1   0        0.293011369        0.293011369
     15     25      0      0      0     -1 ( 0, 0, 2) 2   0        0.293011369        0.293011369
     16     26      0      0      0      1 ( 0, 0, 2) 2   0        0.293011369        0.293011369
     17     35      0      0      0     -1 ( 0, 0, 4) 4   0        0.293011369        0.293011369
     18     36      0      0      0      1 ( 0, 0, 4) 4   0        0.293011369        0.293011369
     19      7      0      0      0     -1 ( 0, 0, 0) 0   0        1.757691931        1.757691931
     20      8      0      0      0      1 ( 0, 0, 0) 0   0        1.757691931        1.757691931
     21      9      0      0      0     -1 ( 0, 0, 0) 0   0        1.757691931        1.757691931
     22     10      0      0      0      1 ( 0, 0, 0) 0   0        1.757691931        1.757691931
     23     29      0      0      0     -1 ( 0, 0, 3) 3   0        1.757691931        1.757691931
     24     30      0      0      0      1 ( 0, 0, 3) 3   0        1.757691931        1.757691931
     25     39      0      0      0     -1 ( 0, 0, 5) 5   0        1.757691931        1.757691931
     26     40      0      0      0      1 ( 0, 0, 5) 5   0        1.757691931        1.757691931
     27     43      0      0      0     -1 ( 0, 0, 6) 6   0        1.757691931        1.757691931
     28     44      0      0      0      1 ( 0, 0, 6) 6   0        1.757691931        1.757691931
     29     21      0      0      0     -1 ( 0, 0, 1) 1   0        1.961350626        1.961350626
     30     22      0      0      0      1 ( 0, 0, 1) 1   0        1.961350626        1.961350626
     31     27      0      0      0     -1 ( 0, 0, 2) 2   0        1.961350626        1.961350626
     32     28      0      0      0      1 ( 0, 0, 2) 2   0        1.961350626        1.961350626
     33     37      0      0      0     -1 ( 0, 0, 4) 4   0        1.961350626        1.961350626
     34     38      0      0      0      1 ( 0, 0, 4) 4   0        1.961350626        1.961350626
     35     11      0      0      0     -1 ( 0, 0, 0) 0   0        2.741965696        2.741965696
     36     12      0      0      0      1 ( 0, 0, 0) 0   0        2.741965696        2.741965696
     37     13      0      0      0     -1 ( 0, 0, 0) 0   0        6.372473018        6.372473018
     38     14      0      0      0      1 ( 0, 0, 0) 0   0        6.372473018        6.372473018
     39     15      0      0      0     -1 ( 0, 0, 0) 0   0        6.372473018        6.372473018
     40     16      0      0      0      1 ( 0, 0, 0) 0   0        6.372473018        6.372473018
     41     31      0      0      0     -1 ( 0, 0, 3) 3   0        6.372473018        6.372473018
     42     32      0      0      0      1 ( 0, 0, 3) 3   0        6.372473018        6.372473018
     43     41      0      0      0     -1 ( 0, 0, 5) 5   0        6.372473018        6.372473018
     44     42      0      0      0      1 ( 0, 0, 5) 5   0        6.372473018        6.372473018
     45     45      0      0      0     -1 ( 0, 0, 6) 6   0        6.372473018        6.372473018
     46     46      0      0      0      1 ( 0, 0, 6) 6   0        6.372473018        6.372473018
  ************ Using the GUGA-CSF implementation **********
  Restricting the total spin of the system, tGUGA :  T
  Restricting total spin S in units of h/2 to     0
  So eg. S = 1 corresponds to one unpaired electron 
  not quite sure yet how to deal with extensively used m_s quantum number..
  NOTE: for now, although SPIN-RESTRICT is set off, internally m_s(LMS) 
  is set to STOT, to make use of reference determinant creations already implemented
  Since NECI always seems to take the beta orbitals first for open shell or 
  spin restricted systems, associate those to positively coupled +h/2 orbitals 
  to always ensure a S >= 0 value!
  *********************************************************
*** READING PRIMITIVE INTEGRALS FROM FCIDUMP ***
 UMatSize:                 38226
Memory required for integral storage:     0.2916412353     Mb/Shared Memory
Two-electron integrals with a magnitude over    0.1000000E-07 are screened
Ignoring integral (chem. notation) (   0   0|   0   0):    0.0000000000000000     
 Number of removed two-index integrals:                     1
 Number of non-zero integrals:                  4806
 ECORE=   0.0000000000000000     
 Setting normal get_umat_el_normal routine
N_neg: 5 ; N_pos: 5 ; S: 0 ; nEl:10
 Fermi det (D0):(    1,    2,    3,    4,   17,   18,   23,   24,   33,   34)
 Symmetry:  ( 0, 0, 0) 0
 Fock operator energy:  -74.588984324264047     
======== FREEZING ORBITALS ==========
 Freezing            2  core orbitals.
 Freezing            0  virtual orbitals.
 Post-Freeze Fermi det (D0):(    1,    2,   15,   16,   21,   22,   31,   32)
 Symmetry:  ( 0, 0, 0) 0
 ECORE now  -93.848901545480004     
 Number of orbitals remaining:           44
 Number of active electrons:           8
      1      1      0      0      0     -1 ( 0, 0, 0) 0   0       -1.940420879       -1.940420879 #
      2      2      0      0      0      1 ( 0, 0, 0) 0   0       -1.940420879       -1.940420879 #
      3     15      0      0      0     -1 ( 0, 0, 1) 1   0       -0.853040138       -0.853040138 #
      4     16      0      0      0      1 ( 0, 0, 1) 1   0       -0.853040138       -0.853040138 #
      5     21      0      0      0     -1 ( 0, 0, 2) 2   0       -0.853040138       -0.853040138 #
      6     22      0      0      0      1 ( 0, 0, 2) 2   0       -0.853040138       -0.853040138 #
      7     31      0      0      0     -1 ( 0, 0, 4) 4   0       -0.853040138       -0.853040138 #
      8     32      0      0      0      1 ( 0, 0, 4) 4   0       -0.853040138       -0.853040138 #
      9      3      0      0      0     -1 ( 0, 0, 0) 0   0        0.287355188        0.287355188
     10      4      0      0      0      1 ( 0, 0, 0) 0   0        0.287355188        0.287355188
     11     17      0      0      0     -1 ( 0, 0, 1) 1   0        0.293011369        0.293011369
     12     18      0      0      0      1 ( 0, 0, 1) 1   0        0.293011369        0.293011369
     13     23      0      0      0     -1 ( 0, 0, 2) 2   0        0.293011369        0.293011369
     14     24      0      0      0      1 ( 0, 0, 2) 2   0        0.293011369        0.293011369
     15     33      0      0      0     -1 ( 0, 0, 4) 4   0        0.293011369        0.293011369
     16     34      0      0      0      1 ( 0, 0, 4) 4   0        0.293011369        0.293011369
     17      5      0      0      0     -1 ( 0, 0, 0) 0   0        1.757691931        1.757691931
     18      6      0      0      0      1 ( 0, 0, 0) 0   0        1.757691931        1.757691931
     19      7      0      0      0     -1 ( 0, 0, 0) 0   0        1.757691931        1.757691931
     20      8      0      0      0      1 ( 0, 0, 0) 0   0        1.757691931        1.757691931
     21     27      0      0      0     -1 ( 0, 0, 3) 3   0        1.757691931        1.757691931
     22     28      0      0      0      1 ( 0, 0, 3) 3   0        1.757691931        1.757691931
     23     37      0      0      0     -1 ( 0, 0, 5) 5   0        1.757691931        1.757691931
     24     38      0      0      0      1 ( 0, 0, 5) 5   0        1.757691931        1.757691931
     25     41      0      0      0     -1 ( 0, 0, 6) 6   0        1.757691931        1.757691931
     26     42      0      0      0      1 ( 0, 0, 6) 6   0        1.757691931        1.757691931
     27     19      0      0      0     -1 ( 0, 0, 1) 1   0        1.961350626        1.961350626
     28     20      0      0      0      1 ( 0, 0, 1) 1   0        1.961350626        1.961350626
     29     25      0      0      0     -1 ( 0, 0, 2) 2   0        1.961350626        1.961350626
     30     26      0      0      0      1 ( 0, 0, 2) 2   0        1.961350626        1.961350626
     31     35      0      0      0     -1 ( 0, 0, 4) 4   0        1.961350626        1.961350626
     32     36      0      0      0      1 ( 0, 0, 4) 4   0        1.961350626        1.961350626
     33      9      0      0      0     -1 ( 0, 0, 0) 0   0        2.741965696        2.741965696
     34     10      0      0      0      1 ( 0, 0, 0) 0   0        2.741965696        2.741965696
     35     11      0      0      0     -1 ( 0, 0, 0) 0   0        6.372473018        6.372473018
     36     12      0      0      0      1 ( 0, 0, 0) 0   0        6.372473018        6.372473018
     37     13      0      0      0     -1 ( 0, 0, 0) 0   0        6.372473018        6.372473018
     38     14      0      0      0      1 ( 0, 0, 0) 0   0        6.372473018        6.372473018
     39     29      0      0      0     -1 ( 0, 0, 3) 3   0        6.372473018        6.372473018
     40     30      0      0      0      1 ( 0, 0, 3) 3   0        6.372473018        6.372473018
     41     39      0      0      0     -1 ( 0, 0, 5) 5   0        6.372473018        6.372473018
     42     40      0      0      0      1 ( 0, 0, 5) 5   0        6.372473018        6.372473018
     43     43      0      0      0     -1 ( 0, 0, 6) 6   0        6.372473018        6.372473018
     44     44      0      0      0      1 ( 0, 0, 6) 6   0        6.372473018        6.372473018
 Setting normal get_umat_el_normal routine
 Number of simultaneous walker distributions:            1
 Number of sign components in bit representation of determinant:            1
Setting integer length of determinants as bit-strings to:      3
Setting integer bit-length of determinants as bit-strings to:     64
For GUGA calculation set up a integer list of length:      4
  ************ Using the GUGA-CSF implementation **********
  Restricting the total spin of the system, tGUGA :  T
  Restricting total spin S in units of h/2 to     0
  So eg. S = 1 corresponds to one unpaired electron 
  not quite sure yet how to deal with extensively used m_s quantum number..
  NOTE: for now, although SPIN-RESTRICT is set off, internally m_s(LMS) 
  is set to STOT, to make use of reference determinant creations already implemented
  Since NECI always seems to take the beta orbitals first for open shell or 
  spin restricted systems, associate those to positively coupled +h/2 orbitals 
  to always ensure a S >= 0 value!
  *********************************************************
 SYMMETRY MULTIPLICATION TABLE
 No Symmetry table found.
          28  Symmetry PAIRS
           8  DISTINCT ORBITAL PAIR PRODUCT SYMS
 Symmetry and spin of orbitals correctly set up for excitation generators.
 Simply transferring this into a spin orbital representation.
 Not storing the H matrix.
 <D0|H|D0>=  -128.49634973032462     
 <D0|T|D0>=  -60.295813781004199     
 <D0|U|D0>  -68.200535949320425     
  !! NOTE: running a GUGA simulation, so following info makes no sense!
  but is kept for now to not break remaining code!
 FDet has     4 alpha electrons, and     4 beta electrons.
                6  alpha-alpha occupied electron pairs
                6  beta-beta occupied electron pairs
               16  alpha-beta occupied electron pairs
              153 alpha-alpha (vacant) hole pairs
              153 beta-beta (vacant) hole pairs
              324 alpha-beta (vacant) hole pairs

 Performing Parallel FCIQMC....

 Generated reference determinants:
(    1,    2,   15,   16,   21,   22,   31,   32) E =   -128.496349730
Symmetry of reference determinant is:          0
Symmetry of reference determinant from spin orbital symmetry info is:          0
*********** INITIATOR METHOD IN USE ***********
Starting with only the reference determinant in the fixed initiator space.
Value for seed is:            7
Reference Energy set to:      -128.4963497303
Highest energy determinant is (approximately):     -75.3862942834926    
Corresponding to a correlation energy of:      53.1100554468320    
This means tau should be no more than about         0.018828826134461
 Highest energy determinant is:           13          14          29          30          39          40          43          44
Brillouin theorem in use for calculation of projected energy.
 Calculating approximate pDoubles for use with excitation generator by looking a excitations from reference.
    960 double excitations, and      24 single excitations found from reference. This will be used to calculate pDoubles.
 pDoubles set to:       0.975610
 pSingles set to:       0.024390
 Connectivity of HF determinant is:          984
Memory allocated for a maximum particle number per node of:         655360
 Determinant related persistent storage requires:      25.000000 Mb / processor
Spawning vectors allowing for a total of          750 particles to be spawned in any one iteration per core.
 Memory requirement    1.1444091796875000E-002 MB
Storing walkers in hash-table. Algorithm is now formally linear scaling with walker number
Length of hash-table:             175
Length of hash-table as a fraction of targetwalkers:              0.70000
Reference processor is:        1
Initial reference is: (    1,    2,   15,   16,   21,   22,   31,   32)

 ========== Reading in from HDF5 popsfile ==========
 File name: popsfile.h5
 Previous calculation
 Date: 2020-02-19 11:08:28
 Sequence no.:           1
 VCS ver: 1c710fcb1f487c8822f0d3363158e32ad95530d8
 Build config: cmake-Intel-par-RELEASE
 Build date: Feb 17 2020
 Build time: 16:23:53

 Reading in                   599  determinants
 Reading in                   150  determinants on this process ...
 ... done

 Completed iterations:         6700
 Resuming calculation after    53.790022786404954       a.u.
 Initial shift:  -0.21451604334930607     
 Warning: attempting to log deallocation but never logged allocation.
 read-in tau optimization data: 
 time-step:    7.8926598263614825E-003
 pSingles:    5.6564062088923964E-002
 pDoubles:   0.94343593791107605     
 pTriples:    0.0000000000000000     
 pParallel:   0.50000000000000000     
 Do not continue tau-search!
 Initial memory (without excitgens + temp arrays) consists of :      15.034332 Mb/Processor
 Only one array of memory to store main particle list allocated...
 Initial memory allocation sucessful...
 =============================================
 Turning OFF the tau-search, since continued run!
 
        Step    Shift           WalkerCng       GrowRate        TotWalkers      Annihil         NoDied          NoBorn          Proj.E          Av.Shift        Proj.E.Cyc      NoatHF          NoatDoubs       AccRat        UniqueDets    NumDetsSpawned   IterTime
        6700  -0.2145160        0.000000        0.000000        1121.000        0.000000        0.000000        0.000000      -0.2122161        0.000000        0.000000        187.0000        0.000000        0.000000             599           0   0.0000    
        6725  -0.2131646       -78.00000       0.9911508        1043.000        314.0000        1542.000        4789.000      -0.2122031        0.000000      -0.2088466        190.0000        466.0000       0.1724088             561         168  0.87578E-03
        6750  -0.2055551       -12.00000       0.9511826        1031.000        328.0000        1423.000        4520.000      -0.2121889        0.000000      -0.2085270        194.0000        502.0000       0.1710760             539         188  0.96979E-03
        6775  -0.2073685        78.00000        1.011998        1109.000        288.0000        1449.000        4477.000      -0.2121989        0.000000      -0.2147310        195.0000        522.0000       0.1674396             587         183  0.84808E-03
        6800  -0.2110925        6.000000        1.024796        1115.000        330.0000        1476.000        4769.000      -0.2121875        0.000000      -0.2093087        193.0000        521.0000       0.1740447             602         197  0.81891E-03
        6825  -0.2144672        44.00000        1.022444        1159.000        332.0000        1523.000        4806.000      -0.2122297        0.000000      -0.2232021        191.0000        535.0000       0.1715448             626         201  0.85236E-03
        6850  -0.2225053        7.000000        1.054290        1166.000        312.0000        1621.000        5128.000      -0.2122767        0.000000      -0.2244326        196.0000        516.0000       0.1736128             622         207  0.91658E-03
        6875  -0.2229011        66.00000        1.002607        1232.000        358.0000        1566.000        5108.000      -0.2123064        0.000000      -0.2198409        196.0000        550.0000       0.1724860             673         201  0.92027E-03
        6900  -0.2240926       -64.00000        1.007868        1168.000        364.0000        1712.000        5106.000      -0.2123119        0.000000      -0.2137192        198.0000        491.0000       0.1710725             636         206  0.11581E-02
        6925  -0.2165049       -34.00000       0.9513184        1134.000        340.0000        1568.000        4847.000      -0.2122851        0.000000      -0.2054861        199.0000        484.0000       0.1707051             618         180  0.88499E-03
        6950  -0.2201136        12.00000        1.024019        1146.000        392.0000        1535.000        4999.000      -0.2122820        0.000000      -0.2115039        202.0000        501.0000       0.1719287             622         173  0.89030E-03
        6975  -0.2206460        33.00000        1.003508        1179.000        372.0000        1547.000        4953.000      -0.2122926        0.000000      -0.2149489        203.0000        548.0000       0.1697512             606         182  0.88162E-03
        7000  -0.2188323       -55.00000       0.9881418        1124.000        362.0000        1610.000        4849.000      -0.2123375        0.000000      -0.2238339        202.0000        536.0000       0.1681812             571         193  0.85945E-03
        7025  -0.2158125        28.00000       0.9803344        1152.000        338.0000        1570.000        4776.000      -0.2123272        0.000000      -0.2097078        199.0000        523.0000       0.1689722             601         198  0.83028E-03
        7050  -0.2154517       -26.00000       0.9976296        1126.000        362.0000        1507.000        4807.000      -0.2123541        0.000000      -0.2192406        203.0000        523.0000       0.1704731             584         176  0.84186E-03
        7075  -0.2193692        60.00000        1.026101        1186.000        352.0000        1556.000        4919.000      -0.2123644        0.000000      -0.2150072        202.0000        549.0000       0.1700076             644         191  0.82771E-03
        7100  -0.2188956       -52.00000       0.9968895        1134.000        346.0000        1596.000        4939.000      -0.2123696        0.000000      -0.2137221        196.0000        517.0000       0.1712315             602         181  0.82499E-03
        7125  -0.2136728       -65.00000       0.9662321        1069.000        374.0000        1522.000        4819.000      -0.2123559        0.000000      -0.2087835        199.0000        468.0000       0.1729099             567         184  0.80910E-03
        7150  -0.2088003        18.00000       0.9684607        1087.000        336.0000        1379.000        4631.000      -0.2122969        0.000000      -0.1968353        203.0000        494.0000       0.1715757             568         183  0.82048E-03
        7175  -0.2090930        7.000000        1.001927        1094.000        322.0000        1363.000        4459.000      -0.2122665        0.000000      -0.2043715        201.0000        497.0000       0.1648856             566         177  0.82181E-03
        7200  -0.2136892        57.00000        1.030692        1151.000        328.0000        1473.000        4749.000      -0.2122337        0.000000      -0.2039784        212.0000        531.0000       0.1703799             607         202  0.83459E-03
        7225  -0.2297180        178.0000        1.111183        1329.000        362.0000        1644.000        5266.000      -0.2122547        0.000000      -0.2175035        212.0000        581.0000       0.1700245             706         230  0.98141E-03
        7250  -0.2371005       -116.0000        1.049755        1213.000        402.0000        1756.000        5655.000      -0.2122432        0.000000      -0.2093470        209.0000        518.0000       0.1739304             640         203  0.10009E-02
        7275  -0.2265835        9.000000       0.9331652        1222.000        366.0000        1660.000        5195.000      -0.2122393        0.000000      -0.2112101        200.0000        552.0000       0.1712261             659         200  0.89618E-03
        7300  -0.2290292       -12.00000        1.016216        1210.000        364.0000        1703.000        5345.000      -0.2122854        0.000000      -0.2244788        202.0000        533.0000       0.1733588             658         205  0.87639E-03
        7325  -0.2195058       -35.00000       0.9392839        1175.000        344.0000        1585.000        5061.000      -0.2122602        0.000000      -0.2056292        208.0000        534.0000       0.1747583             606         178  0.85731E-03
        7350  -0.2256031        74.00000        1.040919        1249.000        346.0000        1609.000        5053.000      -0.2122475        0.000000      -0.2089134        205.0000        564.0000       0.1676232             658         197  0.89959E-03
        7375  -0.2275476       -66.00000        1.012871        1183.000        396.0000        1705.000        5112.000      -0.2122519        0.000000      -0.2134002        208.0000        525.0000       0.1674254             626         186  0.88548E-03
        7400  -0.2265584        70.00000       0.9935152        1253.000        404.0000        1675.000        5245.000      -0.2123201        0.000000      -0.2303298        205.0000        563.0000       0.1729026             671         218  0.89919E-03
        7425  -0.2232242       -99.00000       0.9783089        1154.000        376.0000        1648.000        4932.000      -0.2123581        0.000000      -0.2224744        204.0000        551.0000       0.1661893             604         192  0.83270E-03
        7450  -0.2238122        73.00000        1.003875        1227.000        378.0000        1608.000        5025.000      -0.2124165        0.000000      -0.2280374        206.0000        568.0000       0.1686694             657         212  0.85750E-03
        7475  -0.2207085       -88.00000       0.9797932        1139.000        318.0000        1589.000        4904.000      -0.2124367        0.000000      -0.2178169        204.0000        522.0000       0.1680027             603         197  0.81911E-03
        7500  -0.2146137       -35.00000       0.9607057        1104.000        396.0000        1512.000        4807.000      -0.2124404        0.000000      -0.2134371        205.0000        541.0000       0.1714153             559         200  0.83291E-03
        7525  -0.2139889        30.00000       0.9958992        1134.000        384.0000        1515.000        4748.000      -0.2124666        0.000000      -0.2196540        199.0000        523.0000       0.1700086             580         202  0.81466E-03
        7550  -0.2165049       -48.00000        1.016686        1086.000        368.0000        1534.000        4767.000      -0.2124546        0.000000      -0.2091190        198.0000        476.0000       0.1678876             604         170  0.77162E-03
        7575  -0.2077206       -24.00000       0.9438614        1062.000        282.0000        1386.000        4524.000      -0.2123942        0.000000      -0.1953030        199.0000        496.0000       0.1688060             541         196  0.73379E-03
        7600  -0.2041155       -47.00000       0.9765672        1015.000        316.0000        1376.000        4450.000      -0.2123601        0.000000      -0.2026843        198.0000        472.0000       0.1700290             534         164  0.72995E-03
        7625  -0.2059000       -9.000000        1.011807        1006.000        316.0000        1431.000        4535.000      -0.2123598        0.000000      -0.2122741        194.0000        459.0000       0.1712549             542         160  0.79291E-03
        7650  -0.1979929        47.00000       0.9493222        1053.000        334.0000        1308.000        4332.000      -0.2123268        0.000000      -0.2027866        200.0000        488.0000       0.1723219             542         190  0.78053E-03
        7675  -0.2096317        80.00000        1.079558        1133.000        338.0000        1398.000        4605.000      -0.2123239        0.000000      -0.2115098        202.0000        523.0000       0.1696820             593         187  0.82203E-03
Beginning to average shift value on iteration:           7700
        7700  -0.2130113       -80.00000        1.022477        1053.000        362.0000        1472.000        4604.000      -0.2123297      -0.2130113      -0.2139755        201.0000        476.0000       0.1659159             553         166  0.82107E-03
Total iteration number limit reached. Finishing FCIQMC loop...
 - - - - - - - - - - - - - - - - - - - - - - - -
 Total loop-time:   0.86394736217334867     
 Time lost due to load imbalance:   0.21798137633595616     
 - - - - - - - - - - - - - - - - - - - - - - - -
 
Current reference: 
(    1,    2,   15,   16,   21,   22,   31,   32)
 Number of superinitiators           1

Input DEFINEDET line (includes frozen orbs):
definedet     1-4  17-18  23-24  33-34
 
Most occupied         15 determinants as excitations from reference: 

 Excitation   ExcitLevel   Seniority    Walkers    Amplitude    Init?   <D|H|D>  Proc
11000000000000110000110000000011000000000000    0    0    200.0000      0.97277  Y  -1.28496350E+02       1
11000000000000100001110000000010000100000000    2    4   -14.00000      0.06809  Y  -1.23703067E+02       1
11000000000000110000110000000000001100000000    2    0   -10.00000      0.04864  Y  -1.24013535E+02       3
11000000000000100001100001000011000000000000    2    4   -10.00000      0.04864  Y  -1.23703067E+02       3
10000000010000110000100001000011000000000000    2    4   -8.000000      0.03891  Y  -1.22017728E+02       1
10010000000000100001110000000011000000000000    2    4   -7.000000      0.03405  Y  -1.24133956E+02       1
11000000000000110000001100000011000000000000    2    0   -7.000000      0.03405  Y  -1.26181704E+02       2
11000000000000100000110000010010000000000100    2    4    7.000000      0.03405  Y  -1.24090026E+02       2
11000000000000110000100001000010000100000000    2    4   -7.000000      0.03405  Y  -1.23703067E+02       3
10000000010000100001110000000011000000000000    2    4   -7.000000      0.03405  Y  -1.22017728E+02       3
10010000000000110000110000000010010000000000    2    4   -6.000000      0.02918  Y  -1.25325491E+02       1
11000000000000001001110000000011000000000000    2    2   -6.000000      0.02918  Y  -1.25226866E+02       1
11000000000000000000110000110011000000000000    2    0   -6.000000      0.02918  Y  -1.24096579E+02       2
11000000000000110000110000000000100100000000    2    2   -6.000000      0.02918  Y  -1.25226866E+02       2
10000000010000110000100100000011000000000000    2    4   -6.000000      0.02918  Y  -1.23387596E+02       3
 


 Load balancing information based on the last iteration:

 Mean number of determinants/process     189.5000000000
 Min number of determinants/process                186
 Max number of determinants/process                193



 Load balancing information based on the last iteration:
     Mean number of walkers/process:     263.2500000000
     Min number of walkers/process:          179.00000
     Max number of walkers/process:          427.00000



Calculating approximate errorbar for energy estimates...

Attempting automatic reblocking analysis on data from iteration:            0
Reading back in FCIMCStats datafile...
Number of comment lines found in file:            3
Number of data points found in file:           40
Number of useable data points:           40
Relaxation time for projected energy estimated to be        8 update cycles.
Relaxation time for shift estimated to be        0 update cycles.
Number of blocks assumed for calculation of error in projected energy denominator:       8
Number of blocks assumed for calculation of error in projected energy numerator:       8
WARNING: Error increases monotonically on the blocking graph for *shift*
         whilst performing Flyvbjerg and Petersen blocking analysis.
         Inspect BLOCKING files carefully. Manual reblocking may be necessary.
Number of blocks assumed for calculation of error in shift:      10
ProjE_denominator:        202.3400000000 +/-        1.1705264     Relative error:       0.5784948297E-02
ProjE_numerator:          -42.9909498002 +/-       0.55121749     Relative error:       0.1282171001E-01
 Current reference energy                            -128.496349730325
 Projected correlation energy                          -0.212468863300
 Estimated error in Projected correlation energy        0.002070615484
 Shift correlation energy                              -0.217122462500
 Estimated error in shift correlation energy            0.002402123942

 Projected and shift energy estimates agree to within two sigma of largest error: EDiff =      0.00465360

 Total projected energy        -128.70881859 +/-    0.207062E-02
 Total shift energy            -128.71347219 +/-    0.240212E-02


 Final energy estimate for state 1:     -128.70867945010    
 Warning: attempting to log deallocation but never logged allocation.

 ================================================================
 Memory usage
 Maximum memory defined is (MB) :   99999.0
 Maximum memory used is    (MB) :      40.3
 
 Large memory allocations:
 
 Name              Allocated in       Deallocated in         Size
 - - - - - - - - - - - - - - - - - - - - - - - - - - - - - - - - -
 global_determinantinit_global_det_datclean_global_det_da  25.0MB
 WalkVecDets       InitFCIMCPar       DeallocFciMCMemPar   15.0MB
 UMat              IntInit            IntFreeze           298.6KB
 UMat2             IntFreeze          IntCleanup          251.0KB
 SpawnVec          InitFCIMCPar       DeallocFciMCMemPar   17.6KB
 SpawnVec2         InitFCIMCPar       DeallocFciMCMemPar   17.6KB
 TMAT2D            SetupTMAT          DestroyTMat          16.5KB
 TMAT2D2           SetupTMAT2         not deallocated      15.1KB
 UMat2D            SetupUMat2d_dense  DESTROYUMATCACHE      3.8KB
 SymPairProds      GenSymStatePairs   EndSym                3.0KB
 ================================================================

 ================================================================
 Timing report.

 Timing of most expensive procedures.
 Procedure                                 Calls       total time
 - - - - - - - - - - - - - - - - - - - - - - - - - - - - - - - - 
 WalkerTime                                1000      0.79
 NECICUBE                                     1      0.17
 POPS-read                                    1      0.03
 GetDiagMatelTime                          9773      0.01
 AnnihilTime                               1000      0.01
 GetOffDiagMatelTime                       9773      0.01
 AnnMainTime                               1000      0.01
 CommsTime                                 1000      0.01
 SysInit                                      1      0.01
 SortTime                                  1000      0.01
 - - - - - - - - - - - - - - - - - - - - - - - - - - - - - - - - 
 Total                                   1.06

 Global wall clock time          1.10
 ================================================================
 Calculation ended 02/05/2022 at 11:38:55
 ================================================================
